data_image0
_chemical_formula_structural       Ti2O4
_chemical_formula_sum              "Ti2 O4"
_cell_length_a       4.65327
_cell_length_b       4.65327
_cell_length_c       2.9692
_cell_angle_alpha    90
_cell_angle_beta     90
_cell_angle_gamma    90

_space_group_name_H-M_alt    "P 1"
_space_group_IT_number       1

loop_
  _space_group_symop_operation_xyz
  'x, y, z'

loop_
  _atom_site_type_symbol
  _atom_site_label
  _atom_site_symmetry_multiplicity
  _atom_site_fract_x
  _atom_site_fract_y
  _atom_site_fract_z
  _atom_site_occupancy
  Ti  Ti1       1.0  0.00000  0.00000  0.00000  1.0000
  Ti  Ti2       1.0  0.50000  0.50000  0.50000  1.0000
  O   O1        1.0  0.19542  0.80458  0.50000  1.0000
  O   O2        1.0  0.80458  0.19542  0.50000  1.0000
  O   O3        1.0  0.69542  0.69542  0.00000  1.0000
  O   O4        1.0  0.30458  0.30458  0.00000  1.0000
